cases/Fault_Cases/case2383wp_gc_out.txt
ANDES 1.9.3
Copyright (C) 2015-2022 Hantao Cui

ANDES comes with ABSOLUTELY NO WARRANTY
Case file: case2383wp_gc.xlsx
Report time: 09/10/2026 01:11:45 PM

Power flow converged in 7 iterations.
Flat-start: No

Statistics:
Buses                           2383
Generators                       327
Committed Gens                   327
Loads                           1826
Shunts                             0
Lines                           2896
Transformers                     170
Areas                              0

EXTENDED SUMMARY:
                              P (pu)            Q (pu)

Generation                    252.85            88.116
Load                          245.58            81.439

BUS DATA:
                            Bus Name            Vm(pu)          Va(rad.)

1                              Bus 1           0.99642         -0.024787
2                              Bus 2           0.99458         -0.016068
3                              Bus 3            0.9684          -0.53357
4                              Bus 4           0.96713          -0.16916
5                              Bus 5           0.98438          -0.38472
6                              Bus 6           0.97211          -0.27837
7                              Bus 7           0.96929          -0.43885
8                              Bus 8           0.97853          -0.20807
9                              Bus 9           0.96501          -0.33707
10                            Bus 10                 1          -0.41291
11                            Bus 11           0.97428          -0.13893
12                            Bus 12           0.96515          -0.48897
13                            Bus 13           0.97284          -0.43905
14                            Bus 14            0.9696         -0.098754
15                            Bus 15           0.94798          -0.31025
16                            Bus 16                 1         -0.014129
17                            Bus 17                 1         0.0019733
18                            Bus 18                 1        -1.127e-20
19                            Bus 19           0.97478          -0.46553
20                            Bus 20           0.99481         -0.038852
21                            Bus 21            0.9708          -0.44844
22                            Bus 22           0.97306          -0.24876
23                            Bus 23           0.99015          -0.33863
24                            Bus 24           0.99125          -0.24641
25                            Bus 25           0.99352           -0.2182
26                            Bus 26           0.98537          -0.39726
27                            Bus 27           0.98332          -0.20778
28                            Bus 28            0.9833          -0.20768
29                            Bus 29                 1           -0.3085
30                            Bus 30                 1          -0.30851
31                            Bus 31                 1          -0.22227
32                            Bus 32           0.99958          -0.22299
33                            Bus 33           0.97896          -0.22394
34                            Bus 34            1.0051          -0.21057
35                            Bus 35            1.0051          -0.21073
36                            Bus 36            0.9661          -0.28399
37                            Bus 37           0.99077          -0.35936
38                            Bus 38           0.99075          -0.35934
39                            Bus 39           0.98913          -0.19688
40                            Bus 40           0.98908          -0.19669
41                            Bus 41                 1          -0.17697
42                            Bus 42                 1          -0.17722
43                            Bus 43                 1          -0.14857
44                            Bus 44                 1          -0.14881
45                            Bus 45                 1          -0.33039
46                            Bus 46           0.99998          -0.33036
47                            Bus 47           0.98162          -0.22204
48                            Bus 48           0.98919          -0.30888
49                            Bus 49           0.98923          -0.30897
50                            Bus 50           0.99615          -0.17662
51                            Bus 51           0.99619          -0.17698
52                            Bus 52           0.98517          -0.26688
53                            Bus 53           0.98757          -0.26471
54                            Bus 54           0.99383          -0.21683
55                            Bus 55             0.991          -0.33963
56                            Bus 56           0.99788         -0.099696
57                            Bus 57            0.9975          -0.14996
58                            Bus 58           0.99776          -0.14996
59                            Bus 59           0.99577          0.019069
60                            Bus 60            0.9965         -0.074348
61                            Bus 61             0.999          0.053573
62                            Bus 62           0.99898          0.053608
63                            Bus 63                 1          0.026683
64                            Bus 64                 1          0.023104
65                            Bus 65           0.99635         -0.014518
66                            Bus 66            1.0233          -0.17645
67                            Bus 67                 1          -0.13571
68                            Bus 68            1.0072           -0.1405
69                            Bus 69           0.99784        -0.0089966
70                            Bus 70            1.0031         -0.083181
71                            Bus 71           0.99551         -0.030715
72                            Bus 72           0.99551         -0.030715
73                            Bus 73            1.0084         -0.069698
74                            Bus 74            1.0056         -0.087725
75                            Bus 75           0.98537         -0.033425
76                            Bus 76           0.98541         -0.033543
77                            Bus 77            0.9951         -0.040039
78                            Bus 78           0.99436         -0.098088
79                            Bus 79           0.99614         -0.018574
80                            Bus 80           0.99822          -0.14891
81                            Bus 81           0.99822           -0.1489
82                            Bus 82           0.99507          0.030129
83                            Bus 83                 1        -0.0087227
84                            Bus 84                 1        -0.0087496
85                            Bus 85                 1         -0.040537
86                            Bus 86                 1         -0.040501
87                            Bus 87           0.99363         -0.058587
88                            Bus 88           0.99363         -0.058596
89                            Bus 89           0.99296         -0.017791
90                            Bus 90           0.99861         -0.031862
91                            Bus 91            0.9954        -0.0064812
92                            Bus 92           0.98571          -0.11049
93                            Bus 93                 1         0.0023187
94                            Bus 94           0.99997         0.0022872
95                            Bus 95                 1       -0.00059584
96                            Bus 96                 1       -0.00068934
97                            Bus 97                 1         -0.097173
98                            Bus 98           0.98706          -0.15736
99                            Bus 99           0.98718          -0.15717
100                          Bus 100           0.98646          -0.10383
101                          Bus 101           0.98646          -0.10365
102                          Bus 102           0.99453         -0.015767
103                          Bus 103                 1         -0.033877
104                          Bus 104                 1         -0.033748
105                          Bus 105                 1         -0.098403
106                          Bus 106           0.99972         -0.098659
107                          Bus 107            1.0008         -0.088951
108                          Bus 108             1.003         -0.085512
109                          Bus 109                 1          0.069154
110                          Bus 110                 1          0.069186
111                          Bus 111                 1          -0.28816
112                          Bus 112           0.99987          -0.28803
113                          Bus 113           0.95854          -0.54677
114                          Bus 114           0.97095          -0.53502
115                          Bus 115           0.93462           -0.4161
116                          Bus 116           0.93451          -0.41591
117                          Bus 117           0.97676          -0.61984
118                          Bus 118           0.96631          -0.80272
119                          Bus 119           0.96631          -0.80272
120                          Bus 120           0.95225          -0.76854
121                          Bus 121           0.96775          -0.54586
122                          Bus 122           0.96775          -0.54586
123                          Bus 123                 1          -0.39315
124                          Bus 124                 1          -0.39302
125                          Bus 125                 1          -0.73344
126                          Bus 126                 1          -0.73318
127                          Bus 127                 1          -0.57952
128                          Bus 128           0.99986          -0.57968
129                          Bus 129           0.96195          -0.67666
130                          Bus 130            0.9387           -0.7001
131                          Bus 131                 1          -0.48837
132                          Bus 132                 1          -0.48869
133                          Bus 133            0.9862          -0.40875
134                          Bus 134           0.98627          -0.40873
135                          Bus 135           0.96542          -0.80063
136                          Bus 136           0.96542          -0.80063
137                          Bus 137           0.94098          -0.33976
138                          Bus 138           0.94098          -0.33976
139                          Bus 139                 1          -0.39917
140                          Bus 140                 1          -0.39932
141                          Bus 141            0.9769           -0.7339
142                          Bus 142            0.9635          -0.80709
143                          Bus 143             0.984          -0.65253
144                          Bus 144            0.9839          -0.65251
145                          Bus 145           0.91151          -0.64575
146                          Bus 146           0.91151          -0.64575
147                          Bus 147           0.95403          -0.63085
148                          Bus 148           0.95409          -0.63074
149                          Bus 149           0.98037          -0.66681
150                          Bus 150           0.96283          -0.52946
151                          Bus 151           0.96286          -0.52961
152                          Bus 152           0.96056          -0.45631
153                          Bus 153           0.96056          -0.45631
154                          Bus 154           0.93803          -0.66862
155                          Bus 155           0.96955          -0.57162
156                          Bus 156            1.0436          -0.62422
157                          Bus 157           0.97599           -0.5868
158                          Bus 158           0.97598          -0.58665
159                          Bus 159           0.98293          -0.52373
160                          Bus 160           0.98301           -0.5239
161                          Bus 161           0.97745          -0.64024
162                          Bus 162           0.97747          -0.64026
163                          Bus 163            1.0102          -0.58514
164                          Bus 164            1.0102          -0.58518
165                          Bus 165           0.93991          -0.46714
166                          Bus 166           0.97946          -0.55586
167                          Bus 167            0.9795          -0.55582
168                          Bus 168           0.97727          -0.55734
169                          Bus 169           0.97722          -0.55748
170                          Bus 170           0.97132          -0.57485
171                          Bus 171           0.97134          -0.57477
172                          Bus 172           0.98445          -0.59898
173                          Bus 173            0.9844          -0.59895
174                          Bus 174           0.96996          -0.55343
175                          Bus 175           0.96998          -0.55357
176                          Bus 176                 1          -0.50281
177                          Bus 177                 1          -0.50276
178                          Bus 178           0.99829          -0.66519
179                          Bus 179           0.99834          -0.66509
180                          Bus 180                 1           -0.1493
181                          Bus 181                 1          -0.19069
182                          Bus 182                 1          -0.40471
183                          Bus 183             1.011          -0.22814
184                          Bus 184                 1         -0.094819
185                          Bus 185                 1          -0.16329
186                          Bus 186                 1          -0.73599
187                          Bus 187           0.96875          -0.52403
188                          Bus 188           0.93475          -0.66404
189                          Bus 189           0.92343           -0.6046
190                          Bus 190            1.0009           -0.1128
191                          Bus 191            0.9984          -0.13907
192                          Bus 192                 1          -0.43953
193                          Bus 193            1.0029          -0.43817
194                          Bus 194            1.0006           -0.4439
195                          Bus 195           0.99704          -0.55051
196                          Bus 196                 1          -0.69786
197                          Bus 197           0.97652          -0.31722
198                          Bus 198                 1          -0.55502
199                          Bus 199            1.0055          -0.16753
200                          Bus 200            1.0003          -0.52901
...

LINE DATA:
                           Line Name     Fr. Bus (idx)      To Bus (idx)       P From (pu)       Q From (pu)         P To (pu)         Q To (pu)

Line_1                     Line 16-1                16                 1           0.93322           0.17783          -0.93181          -0.18537
Line_2                    Line 355-1               355                 1          -0.93039          -0.12526           0.93181           0.18537
Line_3                     Line 17-2                17                 2            1.5706           0.26029           -1.5666           -0.2487
Line_4                    Line 354-2               354                 2           -1.5626         -0.080516            1.5666            0.2487
Line_5                     Line 10-3                10                 3             1.515           0.22318           -1.4896          -0.15438
Line_6                    Line 219-3               219                 3          -0.54424          -0.16047           0.54482           0.18423
Line_7                    Line 220-3               220                 3          -0.94321          0.094028           0.94478          -0.02985
Line_8                      Line 7-4                 7                 4           -2.4357           0.72267            2.5526          -0.18009
Line_9                     Line 11-4                11                 4             1.805           0.12019           -1.7949         -0.088366
Line_10                    Line 14-4                14                 4            2.0286          -0.15512           -2.0092           0.25005
Line_11                    Line 16-4                16                 4            2.2888           0.31783           -2.2411         -0.046009
Line_12                    Line 22-4                22                 4           -1.6486           0.48031            1.6732          -0.39205
Line_13                   Line 245-4               245                 4           -1.1744          -0.23193             1.177           0.34283
Line_14                   Line 246-4               246                 4          -0.64168         -0.082231           0.64243           0.11364
Line_15                     Line 5-6                 5                 6           -3.5171           -0.6112            3.5263             1.048
Line_16                     Line 7-5                 7                 5           -1.3154          -0.18752            1.3252           0.20291
Line_17                    Line 10-5                10                 5          -0.22492           0.08924           0.22609          -0.24321
Line_18                   Line 309-5               309                 5          -0.97728          -0.32634           0.97919           0.40589
Line_19                   Line 309-5               309                 5          -0.98491          -0.17243           0.98667           0.24562
Line_20                     Line 6-8                 6                 8           -5.0166         -0.030834            5.0465          0.060388
Line_21                     Line 6-9                 6                 9            1.5064          -0.32479           -1.4992          -0.44808
Line_22                    Line 15-6                15                 6          -0.90978          -0.99664           0.91363           0.17879
Line_23                    Line 31-6                31                 6            3.7763            1.3756           -3.7512           -1.5154
Line_24                   Line 310-6               310                 6           -2.8083         -0.095796            2.8216           0.64429
Line_25                    Line 12-7                12                 7          -0.53039         -0.024092           0.53407          -0.08048
Line_26                    Line 13-7                13                 7          0.025761           0.24546         -0.025618          -0.26568
Line_27                    Line 19-7                19                 7          -0.58816           0.19338           0.59053          -0.23334
Line_28                    Line 21-7                21                 7           -1.3255           0.41615            1.3275          -0.41326
Line_29                    Line 29-7                29                 7             1.719           0.16321           -1.6808         -0.064006
Line_30                   Line 321-7               321                 7           -1.6157         0.0017061            1.6168          0.092311
Line_31                   Line 322-7               322                 7           -1.3849          -0.27697            1.3886           0.42931
Line_32                    Line 8-18                 8                18           -5.0465         -0.060388            5.1365           0.12586
Line_33                   Line 332-9               332                 9           -1.4969          -0.29118            1.4992           0.44808
Line_34                  Line 171-10               171                10           -1.4956         -0.018407            1.5291           0.11044
Line_35                  Line 346-10               346                10         -0.090166         -0.076207          0.090184          0.077171
Line_36                  Line 347-10               347                10          -0.96704           -0.2847           0.96836           0.35758
Line_37                   Line 16-11                16                11            3.1252           0.35407           -3.0687         -0.035615
Line_38                   Line 17-11                17                11            3.5181           0.34999           -3.4467          0.071491
Line_39                  Line 111-11               111                11           -2.1716           0.91672            2.2319          -0.65948
Line_40                  Line 352-11               352                11           -1.4576         -0.038122            1.4613           0.19617
Line_41                  Line 353-11               353                11           -1.0152          -0.22515            1.0172           0.30723
Line_42                  Line 140-12               140                12            0.8503           0.16265           -0.8388          -0.24457
Line_43                  Line 359-12               359                12          -0.92744         0.0065922           0.92888          0.054865
Line_44                  Line 360-12               360                12          -0.43991          -0.19679           0.44032            0.2138
Line_45                   Line 29-13                29                13            1.5895           0.10276           -1.5551         -0.032675
Line_46                  Line 365-13               365                13          -0.68881        -0.0096227           0.68965          0.044447
Line_47                  Line 366-13               366                13          -0.83835           0.31347           0.83969          -0.25723
Line_48                   Line 17-14                17                14            3.5203           0.74104           -3.4705          -0.41534
Line_49                  Line 367-14               367                14          -0.88976          -0.14372           0.89116           0.20416
Line_50                  Line 368-14               368                14          -0.54992          -0.33418           0.55069           0.36629
Line_51                   Line 18-15                18                15            6.9334            1.1529           -6.7509         -0.019841
Line_52                  Line 15-165                15               165            5.6508         -0.019587           -5.5771           0.30914
Line_53                  Line 374-15               374                15           -2.0014          -0.68398            2.0099            1.0361
Line_54                   Line 16-18                16                18          -0.55925           -2.1238            0.5612            2.2604
Line_55                   Line 16-73                16                73           0.86318          -0.29192           -0.8559           0.22953
Line_56                   Line 17-18                17                18          0.043235           -2.1423         -0.041376            2.2725
Line_57                   Line 17-74                17                74            1.3778          -0.25979           -1.3609            0.2867
Line_58                   Line 20-18                20                18           -5.1718          -0.34786            5.1889           0.16025
Line_59                   Line 75-18                75                18           -1.4319          -0.74222             1.437           0.21006
Line_60                   Line 18-76                18                76            2.0973           0.54909           -2.0905          -0.87422
Line_61                  Line 18-101                18               101            3.7167          0.019529           -3.6845          -0.32523
Line_62                  Line 124-19               124                19           0.59075          0.045178          -0.58448          -0.19155
Line_63                  Line 425-19               425                19           -1.1703            0.1005            1.1726        -0.0018266
Line_64                   Line 67-20                67                20           -2.7554           0.12445            2.7815          -0.70835
Line_65                  Line 447-20               447                20           -1.4139          -0.27407            1.4169           0.42343
Line_66                  Line 448-20               448                20          -0.97155          -0.53569            0.9734           0.63278
Line_67                  Line 502-21               502                21           -1.3222           0.56171            1.3255          -0.41615
Line_68                  Line 112-22               112                22           -1.2332             1.257            1.2478           -1.2036
Line_69                  Line 526-22               526                22          -0.48787          -0.48913           0.48877           0.52676
Line_70                  Line 527-22               527                22          0.088073          -0.19316         -0.087992           0.19654
Line_71                   Line 37-23                37                23          -0.27965         0.0060601           0.28062          -0.10401
Line_72                   Line 46-23                46                23           0.19731            0.1321          -0.19674          -0.20158
Line_73                   Line 53-23                53                23            1.0702          -0.22906           -1.0566           0.21211
Line_74                  Line 540-23               540                23          -0.97139          -0.02841           0.97276          0.093479
Line_75                   Line 54-24                54                24           0.50668         -0.059279          -0.50468         -0.012404
Line_76                  Line 545-24               545                24          -0.50429         0.0050128           0.50468          0.012404
Line_77                   Line 41-25                41                25           0.99384          0.011517          -0.98834         -0.033687
Line_78                   Line 53-25                53                25           -1.3493          0.012926            1.3577       -0.00072668
Line_79                   Line 54-25                54                25           0.98267           0.08189          -0.98249         -0.082615
Line_80                  Line 564-25               564                25          -0.61251         -0.086209           0.61313           0.11703
Line_81                   Line 38-26                38                26           0.71505         -0.019009          -0.71141         -0.031684
Line_82                  Line 568-26               568                26          -0.71064         0.0028698           0.71141          0.031684
Line_83                   Line 28-27                28                27           0.94992          -0.24399          -0.94992           0.24409
Line_84                   Line 33-27                33                27           -1.0584          -0.11795            1.0612            0.1139
Line_85                   Line 48-27                48                27           -1.4891           0.41814            1.5193          -0.35477
Line_86                   Line 27-74                27                74           -1.6306        -0.0032216            1.6613          0.099678
Line_87                   Line 47-28                47                28          -0.76811         0.0067337           0.76963         -0.022348
Line_88                   Line 28-88                28                88           -1.7195           0.26634            1.7666          -0.12019
Line_89                   Line 30-29                30                29           -0.1399        1.4968e-05            0.1399        -1.301e-05
Line_90                   Line 29-32                29                32           -3.8722           -2.3722            3.8801            2.8598
Line_91                   Line 45-29                45                29          -0.53374          0.044806           0.53533          -0.10009
Line_92                   Line 48-29                48                29         -0.041584          -0.27621          0.041944           0.21387
Line_93                  Line 613-29               613                29          -0.28667         -0.014115            0.2868          0.019715
Line_94                   Line 46-30                46                30          -0.53264          0.044193           0.53422         -0.099531
Line_95                   Line 49-30                49                30         -0.045499          -0.26155          0.045889           0.19549
Line_96                   Line 32-31                32                31           -7.1347           -4.1673            7.1347            4.1741
Line_97                   Line 39-31                39                31            1.1237           -0.8596           -1.1208           0.32738
Line_98                   Line 36-32                36                32           -3.2327           -1.5835            3.2545            1.3075
Line_99                  Line 615-33               615                33           -1.0565         -0.035756            1.0584           0.11795
Line_100                  Line 35-34                35                34           -1.5679           0.03524            1.5679         -0.034996
Line_101                  Line 34-51                34                51           -2.3225           0.67387            2.3294          -0.96379
Line_102                 Line 183-34               183                34          -0.75341        0.00041767           0.75466          -0.63888
Line_103                 Line 183-35               183                35          -0.74659       -0.00041767           0.74781          -0.63829
Line_104                 Line 617-35               617                35          -0.81869          -0.54097           0.82007           0.60305
Line_105                 Line 644-36               644                36           -1.6225          -0.60621            1.6273           0.82169
Line_106                 Line 645-36               645                36           -1.6002          -0.55352            1.6054           0.76179
Line_107                  Line 38-37                38                37           0.19643          -0.10195          -0.19643           0.10195
Line_108                 Line 663-37               663                37           -0.4757           0.12407           0.47608          -0.10801
Line_109                  Line 55-38                55                38           0.91422          -0.13388          -0.91148           0.12096
Line_110                  Line 40-39                40                39            1.9243          -0.43373           -1.9243           0.43413
Line_111                 Line 682-39               682                39          -0.79945           -0.3752           0.80062           0.42547
Line_112                  Line 44-40                44                40            3.7598           0.45197           -3.7439          -0.60455
Line_113                 Line 679-40               679                40           -1.8133          -0.75855            1.8196            1.0383
Line_114                  Line 42-41                42                41           -2.4597        0.00054847            2.4597        5.6586e-05
Line_115                  Line 41-43                41                43          -0.94267           -1.1286           0.94455            1.1985
Line_116                  Line 80-41                80                41           0.63226          -0.13563          -0.63074          0.052744
Line_117                  Line 47-42                47                42          -0.69251          -0.21527           0.69715             0.151
Line_118                  Line 54-42                54                42           -1.4894         -0.022611            1.4973          0.041658
Line_119                 Line 689-42               689                42          -0.84425         -0.011346           0.84529          0.060461
Line_120                  Line 44-43                44                43           -2.4388        0.00054128            2.4388        5.3563e-05
Line_121                  Line 99-43                99                43          -0.47583          -0.83925           0.47683           0.35128
Line_122                  Line 50-44                50                44           -2.5331          -0.24296            2.5392          0.021371
Line_123                  Line 46-45                46                45           0.33533           -0.1763          -0.33533           0.17631
Line_124                  Line 49-45                49                45           0.30889          -0.26923          -0.30733           0.18725
Line_125                 Line 706-47               706                47          -0.72864         -0.098918           0.72953           0.13767
Line_126                 Line 707-47               707                47          -0.73016         -0.032928           0.73108          0.070861
Line_127                  Line 49-48                49                48          -0.89364           0.33032           0.89364          -0.33023
Line_128                 Line 717-48               717                48          -0.63632          -0.15771           0.63706            0.1883
Line_129                 Line 716-49               716                49          -0.62961          -0.16993           0.63025           0.20047
Line_130                  Line 51-50                51                50           -3.5477           0.36927            3.5477          -0.36798
Line_131                  Line 98-50                98                50            1.0106          -0.79613           -1.0085            0.3773
Line_132                 Line 100-50               100                50            1.2693          -0.91638           -1.2613          -0.36925
Line_133                 Line 726-50               726                50           -1.2526          -0.48409            1.2553           0.60291
Line_134                 Line 727-51               727                51           -1.2157          -0.47907            1.2183           0.59453
Line_135                  Line 53-52                53                52           0.27907           0.21614          -0.27888          -0.22779
Line_136                 Line 754-52               754                52          -0.27866          -0.21877           0.27888           0.22779
Line_137                 Line 181-55               181                55              1.75          -0.12431            -1.706           0.25553
Line_138                 Line 778-55               778                55          -0.79076           0.16584           0.79181          -0.12165
Line_139                  Line 74-56                74                56            1.0104           0.43915           -1.0079          -0.44425
Line_140                 Line 796-56               796                56           -1.0054          -0.35887            1.0079           0.44425
Line_141                  Line 81-57                81                57           0.22985           0.10269           -0.2298           -0.1096
Line_142                  Line 80-58                80                58           0.21984          0.050925           -0.2198           -0.0579
Line_143                  Line 63-59                63                59           0.57184           0.20735          -0.57107          -0.22464
Line_144                  Line 82-59                82                59           0.15036         -0.090305          -0.15009         -0.023009
Line_145                 Line 821-59               821                59          -0.72019          -0.20473           0.72115           0.24765
Line_146                  Line 60-85                60                85          -0.55811          0.011981           0.56157         -0.077322
Line_147                 Line 104-60               104                60           0.98305         -0.074437          -0.97725          0.042165
Line_148                 Line 834-60               834                60          -0.82913           0.18855           0.83017          -0.13389
Line_149                 Line 836-60               836                60          -0.70331          -0.01356            0.7052           0.07974
Line_150                  Line 62-61                62                61           0.34474          -0.23233          -0.34474           0.23235
Line_151                  Line 64-61                64                61          -0.77283            0.1126           0.77602          -0.14757
Line_152                 Line 109-61               109                61              2.49          -0.15778           -2.4848            0.1868
Line_153                 Line 184-61               184                61           -2.0015           0.45607            2.0536          -0.27158
Line_154                  Line 82-62                82                62           -2.1325         -0.018384            2.1401          0.049242
Line_155                 Line 110-62               110                62              2.49          -0.15399           -2.4848           0.18309
Line_156                  Line 71-63                71                63           -1.8255           0.16539            1.8417          -0.10931
Line_157                  Line 91-63                91                63           -1.1839          0.026236            1.1904         -0.032867
Line_158                  Line 94-63                94                63           -1.8915           0.28952            1.8983          -0.26566
Line_159                  Line 96-63                96                63          -0.62077          0.099294           0.62409          -0.14344
Line_160                  Line 64-69                64                69            1.0669         -0.091931            -1.062          0.073379
Line_161                  Line 79-64                79                64           -1.6851           0.10057            1.6952         -0.070273
Line_162                  Line 93-64                93                64           -1.6119           0.24391            1.6168          -0.23271
Line_163                  Line 95-64                95                64           -0.5377          0.080888           0.54019          -0.12929
Line_164                  Line 90-65                90                65          -0.39237           0.10108           0.39372          -0.15754
Line_165                  Line 65-91                65                91          -0.52762           0.13734           0.52831          -0.15859
Line_166                  Line 66-67                66                67           -1.8983           -1.5963            1.9003            1.7349
Line_167                  Line 66-68                66                68           -1.4803           0.85476            1.4873          -0.83717
Line_168                 Line 152-66               152                66           -3.2594          0.076702            3.3785           0.74152
Line_169                 Line 138-67               138                67           -9.3562           -1.0972            9.5497            2.6611
Line_170                 Line 911-67               911                67            1.1082          -0.90199           -1.1046            1.0572
Line_171                 Line 912-67               912                67           0.69635          -0.92213          -0.69397            1.0271
Line_172                  Line 68-78                68                78          -0.95732            0.4342           0.96379          -0.45405
Line_173                 Line 978-68               978                68           0.24105          -0.22077          -0.24087           0.23117
Line_174                 Line 979-68               979                68           0.28927          -0.16121          -0.28911           0.17179
Line_175                  Line 83-69                83                69          0.058209           0.20091          -0.05814          -0.21802
Line_176                 Line 995-69               995                69           -1.0032         -0.070462            1.0047           0.14063
Line_177                 Line 996-69               996                69           -0.1154        -0.0005585           0.11542         0.0040099
Line_178                  Line 70-73                70                73           -1.4538          -0.33833             1.457           0.34333
Line_179                 Line 107-70               107                70           -1.4524          -0.33617            1.4538           0.33833
Line_180                  Line 72-71                72                71                 0                 0                 0                 0
Line_181                  Line 86-71                86                71          -0.89792            0.6132           0.89988           -0.6158
Line_182                Line 1059-71              1059                71           -0.5261          -0.24723           0.52662           0.27428
Line_183                Line 1060-71              1060                71           -0.3987           -0.1604           0.39902           0.17613
Line_184                  Line 73-75                73                75          -0.28905           -1.1194           0.29016            1.1631
Line_185                  Line 87-73                87                73           0.31365          -0.57978          -0.31202           0.54649
Line_186                  Line 74-76                74                76          -0.96969           -1.3862           0.97209            1.4726
Line_187                 Line 74-108                74               108          -0.34106           0.56068           0.34142          -0.56724
Line_188                  Line 76-75                76                75           -1.1418           0.42107            1.1418          -0.42092
Line_189                 Line 76-105                76               105            2.2602           -1.0194           -2.2463           0.41938
Line_190                  Line 84-77                84                77            1.1725         0.0063306           -1.1671         -0.015616
Line_191                  Line 85-77                85                77          0.011613           0.34141         -0.011381          -0.36242
Line_192                Line 1095-77              1095                77          -0.82818           -0.2513           0.82949           0.30693
Line_193                Line 1096-77              1096                77          -0.34878         -0.056021           0.34897          0.071102
Line_194                 Line 78-103                78               103           -1.8695           0.14012            1.8872         -0.079383
Line_195                Line 1106-78              1106                78          -0.90434          -0.24736           0.90568           0.31393
Line_196                  Line 88-79                88                79           -1.6762           0.13172            1.6851          -0.10057
Line_197                  Line 81-80                81                80          0.073494          0.038906         -0.073494         -0.038905
Line_198                  Line 80-96                80                96           -1.6107           0.33896            1.6546          -0.21365
Line_199                Line 1114-80              1114                80          -0.83082           0.26735           0.83205          -0.21534
Line_200                  Line 93-81                93                81            1.2757          -0.16318           -1.2467           0.19064
...

OTHER ALGEBRAIC VARIABLES:
                                    

q PV 1                       0.94761
q PV 2                      -0.56599
q PV 3                        0.4492
q PV 5                       -1.3727
q PV 6                       0.69597
q PV 7                         6.377
q PV 8                      -0.76429
q PV 9                       0.55367
q PV 10                       2.1498
q PV 11                       1.0739
q PV 12                       1.1584
q PV 13                      0.18299
q PV 14                      0.14158
q PV 15                       7.5259
q PV 16                       0.3448
q PV 17                     0.041298
q PV 18                      0.48839
q PV 19                      0.52529
q PV 20                       0.5799
q PV 21                      0.25727
q PV 22                      0.30089
q PV 23                      -1.5377
q PV 24                      0.48138
q PV 25                       3.3407
q PV 26                     0.065816
q PV 27                     0.067805
q PV 28                       1.6537
q PV 29                      0.39112
q PV 30                      0.35068
q PV 31                       1.3579
q PV 32                       3.5173
q PV 33                     -0.73958
q PV 34                      -1.0453
q PV 35                      0.69121
q PV 36                       0.7954
q PV 37                       2.6728
q PV 38                       1.1683
q PV 39                      0.74741
q PV 40                     -0.12431
q PV 41                       7.7698
q PV 42                       1.1477
q PV 43                      0.62918
q PV 44                    -0.003793
q PV 45                     -0.20393
q PV 46                     0.044053
q PV 47                     0.095456
q PV 48                     0.002558
q PV 49                      0.53331
q PV 50                      0.12334
q PV 51                    -0.017221
q PV 52                      0.36874
q PV 53                      0.20309
q PV 54                       0.1274
q PV 55                    -0.074206
q PV 56                    -0.065749
q PV 57                      0.30618
q PV 58                      0.40354
q PV 59                      0.21439
q PV 60                      0.02823
q PV 61                      0.24358
q PV 62                     -0.34175
q PV 63                     0.031045
q PV 64                      0.18595
q PV 65                     -0.39839
q PV 66                     -0.36833
q PV 67                    -0.091223
q PV 68                      0.13987
q PV 69                      0.23292
q PV 70                      0.73675
q PV 71                      0.46343
q PV 72                     0.075384
q PV 73                    -0.038356
q PV 74                      0.15829
q PV 75                      0.42228
q PV 76                     0.040191
q PV 77                      0.43953
q PV 78                     -0.34554
q PV 79                    -0.001379
q PV 80                      -0.2268
q PV 81                      0.76715
q PV 82                      0.83889
q PV 83                       1.3825
q PV 84                      0.26465
q PV 85                      0.35631
q PV 86                      0.16659
q PV 87                      0.15729
q PV 88                      -0.1144
q PV 89                     0.058535
q PV 90                     0.095456
q PV 91                    -0.086881
q PV 92                      0.29253
q PV 93                      0.30468
q PV 94                      0.19981
q PV 95                       0.1527
q PV 96                     -0.53841
q PV 97                      0.15565
q PV 98                    -0.093653
q PV 99                      0.32387
q PV 100                     0.25077
q PV 101                     0.13128
q PV 102                   -0.030318
q PV 103                     0.12723
q PV 104                     0.17757
q PV 105                     0.27999
q PV 106                    -0.50946
q PV 107                    0.073806
q PV 108                   -0.094081
q PV 109                   -0.080493
q PV 110                    -0.13836
q PV 111                    -0.19839
q PV 112                     0.29308
q PV 113                     0.24526
q PV 114                    0.066164
q PV 115                      0.3107
q PV 116                   -0.025522
q PV 117                     0.20993
q PV 118                     0.10048
q PV 119                     0.14019
q PV 120                     0.35092
q PV 121                     0.23709
q PV 122                      0.1708
q PV 123                     0.47703
q PV 124                     0.15679
q PV 125                     0.27226
q PV 126                     0.14624
q PV 127                    -0.72913
q PV 128                    -0.84928
q PV 129                     0.21025
q PV 130                     0.17669
q PV 131                     0.34703
q PV 132                     0.27521
q PV 133                    0.058542
q PV 134                     0.25578
q PV 135                     0.22666
q PV 136                     0.12668
q PV 137                   -0.008045
q PV 138                     0.47021
q PV 139                    0.027035
q PV 140                     0.69175
q PV 141                    -0.52533
q PV 142                    0.087056
q PV 143                     0.21758
q PV 144                     0.10967
q PV 145                     0.33875
q PV 146                     0.36162
q PV 147                     0.70861
q PV 148                   -0.010853
q PV 149                    -0.13164
q PV 150                     0.30716
q PV 151                     0.20726
q PV 152                     0.28572
q PV 153                     0.33777
q PV 154                     0.35309
q PV 155                    -0.16042
q PV 156                      0.2557
q PV 157                     0.60751
q PV 158                    0.048448
q PV 159                     0.19065
q PV 160                     0.43976
q PV 161                     0.22776
q PV 162                     0.35443
q PV 163                    0.089592
q PV 164                     0.21213
q PV 165                     0.41879
q PV 166                      0.2668
q PV 167                      0.3639
q PV 168                     0.26453
q PV 169                    0.091544
q PV 170                    0.086829
q PV 171                     0.18752
q PV 172                     0.27075
q PV 173                     0.32059
q PV 174                     0.13779
q PV 175                     0.21218
q PV 176                    -0.48161
q PV 177                     0.19722
q PV 178                     0.36916
q PV 179                    -0.95171
q PV 180                     0.24234
q PV 181                     0.11236
q PV 182                     0.50003
q PV 183                    -0.43649
q PV 184                    -0.83563
q PV 185                     0.27174
q PV 186                    0.081559
q PV 187                     0.21815
q PV 188                   -0.010056
q PV 189                    -0.18696
q PV 190                    0.036793
q PV 191                     0.37331
q PV 192                     0.10267
q PV 193                     0.22304
q PV 194                     0.24215
q PV 195                     0.33724
q PV 196                    0.037193
q PV 197                    0.045643
q PV 198                    0.061811
q PV 199                     0.00617
q PV 200                   -0.065951
q PV 201                    0.096845
...
p Slack 4                      26.56

